18   
Iteration 65 Energy -449.89559141
O        0.6771062659   -1.2322339146    0.7400785888
H        1.4293126357   -1.8443018632    0.8881909567
H        1.0880628612   -0.2727240826    0.8587854368
O       -1.1109674556   -1.5493470928    2.7090051495
H       -0.4430797556   -1.4496786076    1.9820614338
H       -1.8814660061   -1.9007574235    2.1998576977
O        1.5824790894    0.9469773913    0.9448879609
H        1.2019813206    1.5782362859    0.2119771636
H        1.3368434930    1.3638384920    1.7976948027
O       -0.6036991620    0.8887903762   -2.2414648689
H       -0.2884242331    0.9109102501   -3.1703259228
H       -0.5036133464   -0.0926713171   -1.9559251909
O       -0.2851108181   -1.3861150476   -1.4860714309
H        0.1043769128   -1.3716968284   -0.5392945838
H        0.3786612576   -1.8834165510   -2.0123909674
O        0.6465544427    2.3187420513   -0.7730740769
H        0.1116446755    1.7334825105   -1.4344577869
H       -0.0128005837    2.9606637014   -0.4325588994
