18   
Iteration 65 Energy -449.89559140
O        0.6770713524   -1.2322334142    0.7400742239
H        1.4292762537   -1.8443056067    0.8881750354
H        1.0880340498   -0.2727272019    0.8587877820
O       -1.1109991711   -1.5494122746    2.7089922348
H       -0.4431203140   -1.4497078032    1.9820462104
H       -1.8814607875   -1.9009214942    2.1998577797
O        1.5824673255    0.9469681559    0.9448908022
H        1.2020000656    1.5782256099    0.2119642091
H        1.3368178596    1.3638410370    1.7976871851
O       -0.6037282373    0.8888084809   -2.2414557460
H       -0.2884898499    0.9109276018   -3.1703285520
H       -0.5036391187   -0.0926540621   -1.9559222330
O       -0.2851364443   -1.3860976598   -1.4860746826
H        0.1043459954   -1.3716800182   -0.5392961597
H        0.3786471462   -1.8833829629   -2.0123946542
O        0.6466055263    2.3187284283   -0.7731058602
H        0.1116625373    1.7334792077   -1.4344708016
H       -0.0127104970    2.9606969733   -0.4326047438
