30   
Iteration 144 Energy -1011.91932349
H       -2.1262535049   -3.9167780306    0.5121075055
C       -1.1662655982   -4.3271095104    0.2622166331
C       -0.0572238393   -4.7214189302   -0.0174942898
C        1.2119635791   -5.0958084138   -0.3293757318
N        2.3153482843   -5.3768596343   -0.5962386466
H        4.8578025807    2.0715963791   -0.6542817660
C        4.0820019544    2.8002728565   -0.5017384069
C        3.1717299598    3.5797018925   -0.3320009501
C        2.0976794163    4.3862733084   -0.1310451673
N        1.1446292917    5.0412089697    0.0474629069
H       -0.8394322435    4.4709314670    0.4460273544
C       -1.5749986608    3.7054888610    0.6078670258
C       -2.3360863684    2.7808355187    0.7801312025
C       -3.1405480891    1.7010373086    0.9672898115
N       -3.8033001529    0.7491778334    1.1247867517
H       -8.0902286485   -0.7053819141    1.7249184848
C       -7.1324453703   -1.1364628006    1.5592409025
C       -6.0421757036   -1.6195516291    1.3710950370
C       -4.8220978536   -2.1811142819    1.1607161944
N       -3.7814641773   -2.6793001050    0.9802436319
H        4.0832801554   -4.1813719577   -0.8742741733
C        4.5560385267   -3.2202038057   -0.9088270139
C        5.0121550866   -2.1002609197   -0.9315746978
C        5.4782691832   -0.8228353233   -0.9527686709
N        5.8501020513    0.2847450290   -0.9688697627
H       -1.8651242476   -1.1717759007    0.9735414469
C       -0.8418324749   -0.9009460345    0.8440344350
C        0.3164349436   -0.5933315639    0.6851753774
C        1.6217364528   -0.2596241481    0.4960056019
N        2.7443952942    0.0218123306    0.3271040932
